*SPEF "ieee 1481-1999"
*DESIGN "counter_board"
*DATE "14:59:33 Monday January 26, 2026"
*VENDOR "The OpenROAD Project"
*PROGRAM "OpenROAD"
*VERSION "v2.0-27244-gfecb04286"
*DESIGN_FLOW "NAME_SCOPE LOCAL" "PIN_CAP NONE"
*DIVIDER /
*DELIMITER :
*BUS_DELIMITER []
*T_UNIT 1 NS
*C_UNIT 1 PF
*R_UNIT 1 OHM
*L_UNIT 1 HENRY

*NAME_MAP
*1 clock_i
*2 net3
*3 net4
*4 net5
*5 net6
*6 enable_i
*7 n1
*8 reset_n_i
*9 counter_0/_00_
*10 counter_0/_01_
*11 counter_0/_02_
*12 counter_0/_03_
*13 counter_0/_04_
*14 counter_0/_05_
*15 counter_0/_06_
*16 counter_0/_07_
*19 net1
*20 net2
*21 counter_value_o[0]
*22 counter_value_o[1]
*23 counter_value_o[2]
*24 counter_value_o[3]
*25 clknet_0_clock_i
*26 clknet_1_0__leaf_clock_i
*27 clknet_1_1__leaf_clock_i
*28 _0_
*29 counter_0/_08_
*30 counter_0/_09_
*31 counter_0/_10_
*32 counter_0/_11_
*33 counter_0/_12_
*34 counter_0/_13_
*35 counter_0/_14_
*36 counter_0/_15_
*37 counter_0/n20\[0\]\$_DFFE_PP0P_
*38 counter_0/n20\[1\]\$_DFFE_PP0P_
*39 counter_0/n20\[2\]\$_DFFE_PP0P_
*40 counter_0/n20\[3\]\$_DFFE_PP0P_
*41 input1
*42 input2
*43 output3
*44 output4
*45 output5
*46 output6
*47 clkbuf_0_clock_i
*48 clkbuf_1_0__f_clock_i
*49 clkbuf_1_1__f_clock_i
*50 FILLER_0_0
*51 FILLER_0_7
*52 FILLER_0_14
*53 FILLER_0_21
*54 FILLER_0_28
*55 FILLER_0_35
*56 FILLER_0_42
*57 FILLER_0_49
*58 FILLER_0_56
*59 FILLER_0_63
*60 FILLER_0_70
*61 FILLER_0_77
*62 FILLER_0_84
*63 FILLER_0_91
*64 FILLER_0_98
*65 FILLER_0_105
*66 FILLER_0_112
*67 FILLER_0_119
*68 FILLER_0_123
*69 FILLER_1_0
*70 FILLER_1_7
*71 FILLER_1_14
*72 FILLER_1_21
*73 FILLER_1_28
*74 FILLER_1_35
*75 FILLER_1_42
*76 FILLER_1_49
*77 FILLER_1_56
*78 FILLER_1_63
*79 FILLER_1_70
*80 FILLER_1_77
*81 FILLER_1_84
*82 FILLER_1_91
*83 FILLER_1_98
*84 FILLER_1_105
*85 FILLER_1_112
*86 FILLER_1_119
*87 FILLER_1_123
*88 FILLER_2_0
*89 FILLER_2_7
*90 FILLER_2_14
*91 FILLER_2_21
*92 FILLER_2_28
*93 FILLER_2_35
*94 FILLER_2_42
*95 FILLER_2_49
*96 FILLER_2_56
*97 FILLER_2_63
*98 FILLER_2_70
*99 FILLER_2_77
*100 FILLER_2_84
*101 FILLER_2_91
*102 FILLER_2_98
*103 FILLER_2_105
*104 FILLER_2_112
*105 FILLER_2_119
*106 FILLER_2_123
*107 FILLER_3_0
*108 FILLER_3_7
*109 FILLER_3_14
*110 FILLER_3_21
*111 FILLER_3_28
*112 FILLER_3_35
*113 FILLER_3_42
*114 FILLER_3_49
*115 FILLER_3_56
*116 FILLER_3_63
*117 FILLER_3_70
*118 FILLER_3_77
*119 FILLER_3_84
*120 FILLER_3_91
*121 FILLER_3_98
*122 FILLER_3_105
*123 FILLER_3_112
*124 FILLER_3_119
*125 FILLER_3_123
*126 FILLER_4_0
*127 FILLER_4_7
*128 FILLER_4_14
*129 FILLER_4_21
*130 FILLER_4_28
*131 FILLER_4_35
*132 FILLER_4_42
*133 FILLER_4_49
*134 FILLER_4_56
*135 FILLER_4_63
*136 FILLER_4_70
*137 FILLER_4_77
*138 FILLER_4_84
*139 FILLER_4_91
*140 FILLER_4_98
*141 FILLER_4_105
*142 FILLER_4_112
*143 FILLER_4_119
*144 FILLER_4_123
*145 FILLER_5_0
*146 FILLER_5_7
*147 FILLER_5_14
*148 FILLER_5_21
*149 FILLER_5_28
*150 FILLER_5_35
*151 FILLER_5_42
*152 FILLER_5_49
*153 FILLER_5_56
*154 FILLER_5_63
*155 FILLER_5_70
*156 FILLER_5_77
*157 FILLER_5_84
*158 FILLER_5_91
*159 FILLER_5_98
*160 FILLER_5_105
*161 FILLER_5_112
*162 FILLER_5_119
*163 FILLER_5_123
*164 FILLER_6_0
*165 FILLER_6_7
*166 FILLER_6_14
*167 FILLER_6_21
*168 FILLER_6_28
*169 FILLER_6_35
*170 FILLER_6_42
*171 FILLER_6_49
*172 FILLER_6_56
*173 FILLER_6_60
*174 FILLER_6_74
*175 FILLER_6_76
*176 FILLER_6_104
*177 FILLER_6_111
*178 FILLER_6_118
*179 FILLER_6_122
*180 FILLER_7_0
*181 FILLER_7_7
*182 FILLER_7_14
*183 FILLER_7_20
*184 FILLER_7_27
*185 FILLER_7_34
*186 FILLER_7_36
*187 FILLER_7_48
*188 FILLER_7_55
*189 FILLER_7_65
*190 FILLER_7_102
*191 FILLER_7_111
*192 FILLER_7_123
*193 FILLER_8_0
*194 FILLER_8_7
*195 FILLER_8_14
*196 FILLER_8_21
*197 FILLER_8_28
*198 FILLER_8_35
*199 FILLER_8_42
*200 FILLER_8_49
*201 FILLER_8_57
*202 FILLER_8_102
*203 FILLER_8_109
*204 FILLER_8_116
*205 FILLER_8_123
*206 FILLER_9_0
*207 FILLER_9_7
*208 FILLER_9_14
*209 FILLER_9_21
*210 FILLER_9_28
*211 FILLER_9_35
*212 FILLER_9_42
*213 FILLER_9_49
*214 FILLER_9_56
*215 FILLER_9_63
*216 FILLER_9_65
*217 FILLER_9_98
*218 FILLER_9_105
*219 FILLER_9_112
*220 FILLER_9_119
*221 FILLER_9_123
*222 FILLER_10_0
*223 FILLER_10_7
*224 FILLER_10_14
*225 FILLER_10_21
*226 FILLER_10_28
*227 FILLER_10_35
*228 FILLER_10_42
*229 FILLER_10_49
*230 FILLER_10_56
*231 FILLER_10_63
*232 FILLER_10_70
*233 FILLER_10_77
*234 FILLER_10_84
*235 FILLER_10_91
*236 FILLER_10_98
*237 FILLER_10_105
*238 FILLER_10_112
*239 FILLER_10_119
*240 FILLER_10_123
*241 FILLER_11_0
*242 FILLER_11_7
*243 FILLER_11_14
*244 FILLER_11_21
*245 FILLER_11_28
*246 FILLER_11_35
*247 FILLER_11_42
*248 FILLER_11_49
*249 FILLER_11_56
*250 FILLER_11_63
*251 FILLER_11_70
*252 FILLER_11_77
*253 FILLER_11_84
*254 FILLER_11_91
*255 FILLER_11_98
*256 FILLER_11_105
*257 FILLER_11_112
*258 FILLER_11_119
*259 FILLER_11_123
*260 FILLER_12_0
*261 FILLER_12_7
*262 FILLER_12_14
*263 FILLER_12_21
*264 FILLER_12_28
*265 FILLER_12_35
*266 FILLER_12_42
*267 FILLER_12_49
*268 FILLER_12_56
*269 FILLER_12_63
*270 FILLER_12_70
*271 FILLER_12_77
*272 FILLER_12_86
*273 FILLER_12_93
*274 FILLER_12_100
*275 FILLER_12_107
*276 FILLER_12_114
*277 FILLER_12_121
*278 FILLER_12_123
*279 FILLER_13_0
*280 FILLER_13_7
*281 FILLER_13_14
*282 FILLER_13_21
*283 FILLER_13_28
*284 FILLER_13_35
*285 FILLER_13_42
*286 FILLER_13_49
*287 FILLER_13_56
*288 FILLER_13_63
*289 FILLER_13_70
*290 FILLER_13_77
*291 FILLER_13_84
*292 FILLER_13_91
*293 FILLER_13_98
*294 FILLER_13_105
*295 FILLER_13_112
*296 FILLER_13_119
*297 FILLER_13_123
*298 FILLER_14_0
*299 FILLER_14_7
*300 FILLER_14_14
*301 FILLER_14_21
*302 FILLER_14_28
*303 FILLER_14_35
*304 FILLER_14_42
*305 FILLER_14_49
*306 FILLER_14_56
*307 FILLER_14_63
*308 FILLER_14_70
*309 FILLER_14_77
*310 FILLER_14_84
*311 FILLER_14_91
*312 FILLER_14_98
*313 FILLER_14_105
*314 FILLER_14_112
*315 FILLER_14_119
*316 FILLER_14_123

*PORTS
clock_i I
counter_value_o[0] O
counter_value_o[1] O
counter_value_o[2] O
counter_value_o[3] O
enable_i I
reset_n_i I

*D_NET *1 0.00730693
*CONN
*P clock_i I
*I *47:A I *D sg13g2_buf_2
*CAP
1 clock_i 0.00328466
2 *47:A 7.09714e-05
3 *1:10 0.000368809
4 *1:8 0.00358249
5 *47:A *2:8 0
6 *47:A *25:21 0
7 *47:A *27:25 0
8 *1:8 *36:A 0
9 *1:8 *3:8 0
10 *1:8 *3:14 0
11 *1:8 *6:13 0
12 *1:8 *8:9 0
13 *1:8 *9:10 0
14 *1:8 *16:10 0
15 *1:8 *19:8 0
16 *1:8 *19:29 0
17 *1:8 *19:36 0
18 *1:8 *20:8 0
19 *1:10 *2:8 0
20 *1:10 *25:21 0
21 *1:10 *27:25 0
*RES
1 clock_i *1:8 49.2424 
2 *1:8 *1:10 2.6224 
3 *1:10 *47:A 20.7898 
*END

*D_NET *2 0.00476514
*CONN
*I *43:A I *D sg13g2_buf_1
*I *33:A I *D sg13g2_nand3_1
*I *35:A I *D sg13g2_nand4_1
*I *30:A I *D sg13g2_xor2_1
*I *31:A I *D sg13g2_nand2_1
*I *37:Q O *D sg13g2_dfrbpq_1
*CAP
1 *43:A 0.000572932
2 *33:A 0.000340699
3 *35:A 6.25071e-05
4 *30:A 3.14716e-05
5 *31:A 0.000143961
6 *37:Q 0.000113079
7 *2:36 0.000550066
8 *2:12 0.000250037
9 *2:10 0.000799287
10 *2:8 0.00126383
11 *31:A *14:8 0.000177976
12 *33:A *33:B 0
13 *33:A *33:C 0
14 *33:A *34:B 0
15 *33:A *35:C 0
16 *33:A *36:A 0
17 *33:A *36:B 0
18 *33:A *37:RESET_B 0
19 *33:A *3:14 0
20 *35:A *3:14 0.000101803
21 *35:A *16:10 0
22 *43:A *3:8 0
23 *43:A *25:21 0
24 *2:8 *27:25 0
25 *2:10 *3:8 0
26 *2:10 *14:8 0.000227547
27 *2:10 *27:25 0
28 *2:12 *14:8 0.000129945
29 *2:36 *32:A 0
30 *2:36 *32:B 0
31 *2:36 *37:RESET_B 0
32 *2:36 *3:14 0
33 *2:36 *19:16 0
34 *2:36 *19:29 0
35 *47:A *2:8 0
36 *1:10 *2:8 0
*RES
1 *37:Q *2:8 40.9328 
2 *2:8 *2:10 6.0016 
3 *2:10 *2:12 0.8272 
4 *2:12 *31:A 41.5246 
5 *2:12 *30:A 40.5104 
6 *2:10 *2:36 21.3552 
7 *2:36 *35:A 20.6776 
8 *2:36 *33:A 23.0052 
9 *2:8 *43:A 44.8752 
*END

*D_NET *3 0.00425552
*CONN
*I *44:A I *D sg13g2_buf_1
*I *32:A I *D sg13g2_xnor2_1
*I *33:B I *D sg13g2_nand3_1
*I *35:B I *D sg13g2_nand4_1
*I *38:Q O *D sg13g2_dfrbpq_1
*CAP
1 *44:A 0.000553009
2 *32:A 6.02439e-05
3 *33:B 0.000502493
4 *35:B 0
5 *38:Q 0
6 *3:14 0.000817736
7 *3:8 0.00101031
8 *3:6 0.00118783
9 *32:A *37:RESET_B 0
10 *33:B *33:C 2.20968e-05
11 *33:B *35:C 0
12 *33:B *35:D 0
13 *33:B *16:10 0
14 *33:B *19:16 0
15 *44:A counter_value_o[2] 0
16 *44:A *45:A 0
17 *44:A *21:8 0
18 *44:A *24:8 0
19 *3:8 *36:A 0
20 *3:14 *14:8 0
21 *3:14 *19:16 0
22 *33:A *33:B 0
23 *33:A *3:14 0
24 *35:A *3:14 0.000101803
25 *43:A *3:8 0
26 *1:8 *3:8 0
27 *1:8 *3:14 0
28 *2:10 *3:8 0
29 *2:36 *32:A 0
30 *2:36 *3:14 0
*RES
1 *38:Q *3:6 40 
2 *3:6 *3:8 6.4328 
3 *3:8 *3:14 22.9788 
4 *3:14 *35:B 20 
5 *3:14 *33:B 24.6684 
6 *3:8 *32:A 40.4356 
7 *3:6 *44:A 45.4164 
*END

*D_NET *4 0.00419834
*CONN
*I *45:A I *D sg13g2_buf_1
*I *34:A I *D sg13g2_xnor2_1
*I *35:C I *D sg13g2_nand4_1
*I *39:Q O *D sg13g2_dfrbpq_1
*CAP
1 *45:A 0.000517965
2 *34:A 0
3 *35:C 0.000407161
4 *39:Q 0
5 *4:10 0.00106986
6 *4:6 0.00118067
7 *35:C *33:C 0.000339724
8 *35:C *35:D 0
9 *35:C *15:8 0
10 *45:A counter_value_o[0] 0
11 *45:A *21:8 0
12 *45:A *21:14 0
13 *45:A *24:8 0
14 *4:10 *36:A 0
15 *4:10 *39:RESET_B 0
16 *4:10 *9:10 0
17 *4:10 *9:25 0
18 *4:10 *12:10 0.000243683
19 *4:10 *15:8 0
20 *4:10 *26:10 0.000439278
21 *33:B *35:C 0
22 *33:A *35:C 0
23 *44:A *45:A 0
*RES
1 *39:Q *4:6 40 
2 *4:6 *4:10 7.4096 
3 *4:10 *35:C 43.8192 
4 *4:10 *34:A 40 
5 *4:6 *45:A 45.0292 
*END

*D_NET *5 0.00215439
*CONN
*I *46:A I *D sg13g2_buf_1
*I *36:A I *D sg13g2_xnor2_1
*I *40:Q O *D sg13g2_dfrbpq_1
*CAP
1 *46:A 0.000180363
2 *36:A 0.000839103
3 *40:Q 0
4 *5:6 0.00101947
5 *36:A *36:B 3.42534e-05
6 *36:A *37:RESET_B 0
7 *36:A *39:RESET_B 0
8 *36:A *9:10 0
9 *36:A *9:25 0
10 *36:A *26:10 0
11 *46:A *21:8 8.12084e-05
12 *33:A *36:A 0
13 *1:8 *36:A 0
14 *3:8 *36:A 0
15 *4:10 *36:A 0
*RES
1 *40:Q *5:6 40 
2 *5:6 *36:A 46.8398 
3 *5:6 *46:A 41.8612 
*END

*D_NET *6 0.00588076
*CONN
*P enable_i I
*I *41:A I *D sg13g2_buf_1
*CAP
1 enable_i 0.00161706
2 *41:A 0
3 *6:13 0.00161706
4 *6:13 *28:A 0
5 *6:13 *8:9 0.00194468
6 *6:13 *20:8 0.000701949
7 *1:8 *6:13 0
*RES
1 enable_i *6:13 37.5736 
2 *6:13 *41:A 20 
*END

*D_NET *7 0.000203164
*CONN
*I *29:A I *D sg13g2_inv_1
*I *28:Y O *D sg13g2_inv_2
*CAP
1 *29:A 0.000101582
2 *28:Y 0.000101582
3 *29:A *19:16 0
*RES
1 *28:Y *29:A 40.946 
*END

*D_NET *8 0.00481548
*CONN
*P reset_n_i I
*I *42:A I *D sg13g2_buf_1
*CAP
1 reset_n_i 0.0014354
2 *42:A 0
3 *8:9 0.0014354
4 *1:8 *8:9 0
5 *6:13 *8:9 0.00194468
*RES
1 reset_n_i *8:9 32.54 
2 *8:9 *42:A 20 
*END

*D_NET *9 0.00417449
*CONN
*I *39:RESET_B I *D sg13g2_dfrbpq_1
*I *38:RESET_B I *D sg13g2_dfrbpq_1
*I *40:RESET_B I *D sg13g2_dfrbpq_1
*I *37:RESET_B I *D sg13g2_dfrbpq_1
*I *29:Y O *D sg13g2_inv_1
*CAP
1 *39:RESET_B 0.000196177
2 *38:RESET_B 0.000124355
3 *40:RESET_B 0
4 *37:RESET_B 0.000516468
5 *29:Y 0.000603092
6 *9:29 0.000185138
7 *9:25 0.000434155
8 *9:10 0.00129675
9 *37:RESET_B *32:B 0
10 *37:RESET_B *37:D 0
11 *37:RESET_B *37:CLK 0
12 *38:RESET_B *40:CLK 0
13 *38:RESET_B *27:25 0
14 *39:RESET_B *40:CLK 0
15 *9:10 *33:C 8.14056e-05
16 *9:10 *12:10 0
17 *9:10 *15:8 0
18 *9:10 *16:10 0.000245377
19 *9:10 *19:8 0.000278313
20 *9:10 *19:36 0.000213253
21 *9:25 *12:10 0
22 *9:29 *40:CLK 0
23 *32:A *37:RESET_B 0
24 *33:A *37:RESET_B 0
25 *36:A *37:RESET_B 0
26 *36:A *39:RESET_B 0
27 *36:A *9:10 0
28 *36:A *9:25 0
29 *1:8 *9:10 0
30 *2:36 *37:RESET_B 0
31 *4:10 *39:RESET_B 0
32 *4:10 *9:10 0
33 *4:10 *9:25 0
*RES
1 *29:Y *9:10 45.7464 
2 *9:10 *37:RESET_B 44.6728 
3 *9:10 *9:25 1.5664 
4 *9:25 *9:29 20.8272 
5 *9:29 *40:RESET_B 20 
6 *9:29 *38:RESET_B 21.672 
7 *9:25 *39:RESET_B 41.7864 
*END

*D_NET *10 0.000351022
*CONN
*I *37:D I *D sg13g2_dfrbpq_1
*I *30:X O *D sg13g2_xor2_1
*CAP
1 *37:D 0.000175511
2 *30:X 0.000175511
3 *37:RESET_B *37:D 0
*RES
1 *30:X *37:D 41.7292 
*END

*D_NET *11 6.76848e-05
*CONN
*I *38:D I *D sg13g2_dfrbpq_1
*I *32:Y O *D sg13g2_xnor2_1
*CAP
1 *38:D 3.38424e-05
2 *32:Y 3.38424e-05
3 *38:D *40:D 0
*RES
1 *32:Y *38:D 40.3652 
*END

*D_NET *12 0.000666221
*CONN
*I *39:D I *D sg13g2_dfrbpq_1
*I *34:Y O *D sg13g2_xnor2_1
*CAP
1 *39:D 0
2 *34:Y 0.000173571
3 *12:10 0.000173571
4 *12:10 *34:B 7.53965e-05
5 *4:10 *12:10 0.000243683
6 *9:10 *12:10 0
7 *9:25 *12:10 0
*RES
1 *34:Y *12:10 41.892 
2 *12:10 *39:D 40 
*END

*D_NET *13 6.76848e-05
*CONN
*I *40:D I *D sg13g2_dfrbpq_1
*I *36:Y O *D sg13g2_xnor2_1
*CAP
1 *40:D 3.38424e-05
2 *36:Y 3.38424e-05
3 *38:D *40:D 0
*RES
1 *36:Y *40:D 40.3652 
*END

*D_NET *14 0.00151118
*CONN
*I *32:B I *D sg13g2_xnor2_1
*I *31:Y O *D sg13g2_nand2_1
*CAP
1 *32:B 2.34489e-05
2 *31:Y 0.000310445
3 *14:8 0.000333894
4 *14:8 *19:29 0.000307921
5 *31:A *14:8 0.000177976
6 *37:RESET_B *32:B 0
7 *2:10 *14:8 0.000227547
8 *2:12 *14:8 0.000129945
9 *2:36 *32:B 0
10 *3:14 *14:8 0
*RES
1 *31:Y *14:8 43.2296 
2 *14:8 *32:B 40.1936 
*END

*D_NET *15 0.000601978
*CONN
*I *34:B I *D sg13g2_xnor2_1
*I *33:Y O *D sg13g2_nand3_1
*CAP
1 *34:B 4.47802e-05
2 *33:Y 0.000218511
3 *15:8 0.000263291
4 *33:A *34:B 0
5 *35:C *15:8 0
6 *4:10 *15:8 0
7 *9:10 *15:8 0
8 *12:10 *34:B 7.53965e-05
*RES
1 *33:Y *15:8 41.7512 
2 *15:8 *34:B 40.5104 
*END

*D_NET *16 0.000733389
*CONN
*I *36:B I *D sg13g2_xnor2_1
*I *35:Y O *D sg13g2_nand4_1
*CAP
1 *36:B 6.09808e-05
2 *35:Y 0.000165898
3 *16:10 0.000226879
4 *33:B *16:10 0
5 *33:A *36:B 0
6 *35:A *16:10 0
7 *36:A *36:B 3.42534e-05
8 *1:8 *16:10 0
9 *9:10 *16:10 0.000245377
*RES
1 *35:Y *16:10 41.6544 
2 *16:10 *36:B 40.5104 
*END

*D_NET *19 0.00369162
*CONN
*I *33:C I *D sg13g2_nand3_1
*I *35:D I *D sg13g2_nand4_1
*I *30:B I *D sg13g2_xor2_1
*I *31:B I *D sg13g2_nand2_1
*I *41:X O *D sg13g2_buf_1
*CAP
1 *33:C 0.000176396
2 *35:D 0.000119261
3 *30:B 0
4 *31:B 0
5 *41:X 0.000299196
6 *19:36 0.000424638
7 *19:29 0.000222276
8 *19:16 0.000460263
9 *19:8 0.000666164
10 *19:8 *20:8 8.07102e-05
11 *29:A *19:16 0
12 *33:B *33:C 2.20968e-05
13 *33:B *35:D 0
14 *33:B *19:16 0
15 *33:A *33:C 0
16 *35:C *33:C 0.000339724
17 *35:C *35:D 0
18 *1:8 *19:8 0
19 *1:8 *19:29 0
20 *1:8 *19:36 0
21 *2:36 *19:16 0
22 *2:36 *19:29 0
23 *3:14 *19:16 0
24 *9:10 *33:C 8.14056e-05
25 *9:10 *19:8 0.000278313
26 *9:10 *19:36 0.000213253
27 *14:8 *19:29 0.000307921
*RES
1 *41:X *19:8 43.0448 
2 *19:8 *19:16 22.3254 
3 *19:16 *31:B 20 
4 *19:16 *19:29 42.1846 
5 *19:29 *30:B 20 
6 *19:8 *19:36 1.2892 
7 *19:36 *35:D 40.616 
8 *19:36 *33:C 41.9052 
*END

*D_NET *20 0.00199986
*CONN
*I *28:A I *D sg13g2_inv_2
*I *42:X O *D sg13g2_buf_1
*CAP
1 *28:A 5.78999e-05
2 *42:X 0.000550699
3 *20:8 0.000608599
4 *1:8 *20:8 0
5 *6:13 *28:A 0
6 *6:13 *20:8 0.000701949
7 *19:8 *20:8 8.07102e-05
*RES
1 *42:X *20:8 44.8928 
2 *20:8 *28:A 40.5104 
*END

*D_NET *21 0.00300978
*CONN
*P counter_value_o[0] O
*I *43:X O *D sg13g2_buf_1
*CAP
1 counter_value_o[0] 0.00121535
2 *43:X 0.000112729
3 *21:14 0.00132769
4 *21:8 0.000225062
5 counter_value_o[0] counter_value_o[1] 0
6 counter_value_o[0] *24:8 0
7 *21:8 *24:8 4.77421e-05
8 *21:14 *25:21 0
9 *44:A *21:8 0
10 *45:A counter_value_o[0] 0
11 *45:A *21:8 0
12 *45:A *21:14 0
13 *46:A *21:8 8.12084e-05
*RES
1 *43:X *21:8 41.1968 
2 *21:8 *21:14 40.9328 
3 *21:14 counter_value_o[0] 12.6456 
*END

*D_NET *22 0.00273276
*CONN
*P counter_value_o[1] O
*I *44:X O *D sg13g2_buf_1
*CAP
1 counter_value_o[1] 0.000990787
2 *44:X 0.000990787
3 counter_value_o[1] counter_value_o[2] 0
4 counter_value_o[1] counter_value_o[3] 0
5 counter_value_o[1] *24:8 0.000751186
6 counter_value_o[0] counter_value_o[1] 0
*RES
1 *44:X counter_value_o[1] 49.1916 
*END

*D_NET *23 0.00210955
*CONN
*P counter_value_o[2] O
*I *45:X O *D sg13g2_buf_1
*CAP
1 counter_value_o[2] 0.00105478
2 *45:X 0
3 *23:6 0.00105478
4 counter_value_o[2] counter_value_o[3] 0
5 counter_value_o[2] *24:8 0
6 counter_value_o[1] counter_value_o[2] 0
7 *44:A counter_value_o[2] 0
*RES
1 *45:X *23:6 40 
2 *23:6 counter_value_o[2] 10.0232 
*END

*D_NET *24 0.00370385
*CONN
*P counter_value_o[3] O
*I *46:X O *D sg13g2_buf_1
*CAP
1 counter_value_o[3] 0.000774939
2 *46:X 0.000677521
3 *24:8 0.00145246
4 counter_value_o[0] *24:8 0
5 counter_value_o[1] counter_value_o[3] 0
6 counter_value_o[1] *24:8 0.000751186
7 counter_value_o[2] counter_value_o[3] 0
8 counter_value_o[2] *24:8 0
9 *44:A *24:8 0
10 *45:A *24:8 0
11 *21:8 *24:8 4.77421e-05
*RES
1 *46:X *24:8 46.7408 
2 *24:8 counter_value_o[3] 45.7552 
*END

*D_NET *25 0.00360185
*CONN
*I *49:A I *D sg13g2_buf_2
*I *48:A I *D sg13g2_buf_2
*I *47:X O *D sg13g2_buf_2
*CAP
1 *49:A 7.21087e-05
2 *48:A 0.000126096
3 *47:X 9.58189e-06
4 *25:47 0.000590551
5 *25:34 0.000660529
6 *25:21 0.0010587
7 *25:8 0.000932607
8 *25:6 0.000151669
9 *49:A *27:8 0
10 *25:21 *26:10 0
11 *25:47 *27:8 0
12 *25:47 *27:25 0
13 *43:A *25:21 0
14 *47:A *25:21 0
15 *1:10 *25:21 0
16 *21:14 *25:21 0
*RES
1 *47:X *25:6 20.1034 
2 *25:6 *25:8 20 
3 *25:8 *25:21 28.2984 
4 *25:21 *48:A 21.2056 
5 *25:6 *25:34 1.3552 
6 *25:34 *25:47 45.2272 
7 *25:47 *49:A 20.7546 
*END

*D_NET *26 0.00170843
*CONN
*I *39:CLK I *D sg13g2_dfrbpq_1
*I *40:CLK I *D sg13g2_dfrbpq_1
*I *48:X O *D sg13g2_buf_2
*CAP
1 *39:CLK 0
2 *40:CLK 0.000267501
3 *48:X 0.000367076
4 *26:12 0.000267501
5 *26:10 0.000367076
6 *36:A *26:10 0
7 *38:RESET_B *40:CLK 0
8 *39:RESET_B *40:CLK 0
9 *4:10 *26:10 0.000439278
10 *9:29 *40:CLK 0
11 *25:21 *26:10 0
*RES
1 *48:X *26:10 43.6344 
2 *26:10 *26:12 20 
3 *26:12 *40:CLK 22.4464 
4 *26:12 *39:CLK 20 
*END

*D_NET *27 0.00188374
*CONN
*I *38:CLK I *D sg13g2_dfrbpq_1
*I *37:CLK I *D sg13g2_dfrbpq_1
*I *49:X O *D sg13g2_buf_2
*CAP
1 *38:CLK 0
2 *37:CLK 2.67309e-05
3 *49:X 0.000525657
4 *27:25 0.00038948
5 *27:8 0.000941868
6 *37:RESET_B *37:CLK 0
7 *38:RESET_B *27:25 0
8 *47:A *27:25 0
9 *49:A *27:8 0
10 *1:10 *27:25 0
11 *2:8 *27:25 0
12 *2:10 *27:25 0
13 *25:47 *27:8 0
14 *25:47 *27:25 0
*RES
1 *49:X *27:8 25.1656 
2 *27:8 *37:CLK 20.3146 
3 *27:8 *27:25 43.9534 
4 *27:25 *38:CLK 20 
*END
