*SPEF "ieee 1481-1999"
*DESIGN "counter_board"
*DATE "13:16:04 Wednesday February 18, 2026"
*VENDOR "The OpenROAD Project"
*PROGRAM "OpenROAD"
*VERSION "26Q1-990-g15af3a5c0"
*DESIGN_FLOW "NAME_SCOPE LOCAL" "PIN_CAP NONE"
*DIVIDER /
*DELIMITER :
*BUS_DELIMITER []
*T_UNIT 1 NS
*C_UNIT 1 PF
*R_UNIT 1 OHM
*L_UNIT 1 HENRY

*NAME_MAP
*1 clock_i
*2 net3
*3 net4
*4 net5
*5 net6
*6 net1
*7 n1
*8 net2
*9 counter_0/_00_
*10 counter_0/_01_
*11 counter_0/_02_
*12 counter_0/_03_
*13 counter_0/_04_
*14 counter_0/_05_
*15 counter_0/_06_
*16 counter_0/_07_
*19 enable_i
*20 reset_n_i
*21 counter_value_o[0]
*22 counter_value_o[1]
*23 counter_value_o[2]
*24 counter_value_o[3]
*25 clknet_0_clock_i
*26 clknet_1_0__leaf_clock_i
*27 clknet_1_1__leaf_clock_i
*28 _0_
*29 counter_0/_08_
*30 counter_0/_09_
*31 counter_0/_10_
*32 counter_0/_11_
*33 counter_0/_12_
*34 counter_0/_13_
*35 counter_0/_14_
*36 counter_0/_15_
*37 counter_0/n20\[0\]\$_DFFE_PP0P_
*38 counter_0/n20\[1\]\$_DFFE_PP0P_
*39 counter_0/n20\[2\]\$_DFFE_PP0P_
*40 counter_0/n20\[3\]\$_DFFE_PP0P_
*41 input1
*42 input2
*43 output3
*44 output4
*45 output5
*46 output6
*47 clkbuf_0_clock_i
*48 clkbuf_1_0__f_clock_i
*49 clkbuf_1_1__f_clock_i
*50 FILLER_0_0
*51 FILLER_0_7
*52 FILLER_0_14
*53 FILLER_0_21
*54 FILLER_0_28
*55 FILLER_0_35
*56 FILLER_0_42
*57 FILLER_0_49
*58 FILLER_0_56
*59 FILLER_0_63
*60 FILLER_0_70
*61 FILLER_0_77
*62 FILLER_0_84
*63 FILLER_0_91
*64 FILLER_0_98
*65 FILLER_0_105
*66 FILLER_0_112
*67 FILLER_0_119
*68 FILLER_0_123
*69 FILLER_1_0
*70 FILLER_1_7
*71 FILLER_1_14
*72 FILLER_1_21
*73 FILLER_1_28
*74 FILLER_1_35
*75 FILLER_1_42
*76 FILLER_1_49
*77 FILLER_1_56
*78 FILLER_1_63
*79 FILLER_1_70
*80 FILLER_1_77
*81 FILLER_1_84
*82 FILLER_1_91
*83 FILLER_1_98
*84 FILLER_1_105
*85 FILLER_1_112
*86 FILLER_1_119
*87 FILLER_1_123
*88 FILLER_2_0
*89 FILLER_2_7
*90 FILLER_2_14
*91 FILLER_2_21
*92 FILLER_2_28
*93 FILLER_2_35
*94 FILLER_2_42
*95 FILLER_2_49
*96 FILLER_2_56
*97 FILLER_2_63
*98 FILLER_2_70
*99 FILLER_2_77
*100 FILLER_2_84
*101 FILLER_2_91
*102 FILLER_2_98
*103 FILLER_2_105
*104 FILLER_2_112
*105 FILLER_2_119
*106 FILLER_2_123
*107 FILLER_3_0
*108 FILLER_3_7
*109 FILLER_3_14
*110 FILLER_3_21
*111 FILLER_3_28
*112 FILLER_3_35
*113 FILLER_3_42
*114 FILLER_3_49
*115 FILLER_3_56
*116 FILLER_3_63
*117 FILLER_3_70
*118 FILLER_3_77
*119 FILLER_3_84
*120 FILLER_3_91
*121 FILLER_3_98
*122 FILLER_3_105
*123 FILLER_3_112
*124 FILLER_3_119
*125 FILLER_3_123
*126 FILLER_4_0
*127 FILLER_4_7
*128 FILLER_4_14
*129 FILLER_4_21
*130 FILLER_4_28
*131 FILLER_4_35
*132 FILLER_4_42
*133 FILLER_4_49
*134 FILLER_4_56
*135 FILLER_4_63
*136 FILLER_4_70
*137 FILLER_4_77
*138 FILLER_4_84
*139 FILLER_4_91
*140 FILLER_4_98
*141 FILLER_4_105
*142 FILLER_4_112
*143 FILLER_4_119
*144 FILLER_4_123
*145 FILLER_5_0
*146 FILLER_5_7
*147 FILLER_5_14
*148 FILLER_5_21
*149 FILLER_5_28
*150 FILLER_5_35
*151 FILLER_5_42
*152 FILLER_5_49
*153 FILLER_5_56
*154 FILLER_5_63
*155 FILLER_5_70
*156 FILLER_5_74
*157 FILLER_5_102
*158 FILLER_5_109
*159 FILLER_5_116
*160 FILLER_5_123
*161 FILLER_6_0
*162 FILLER_6_7
*163 FILLER_6_14
*164 FILLER_6_21
*165 FILLER_6_28
*166 FILLER_6_35
*167 FILLER_6_42
*168 FILLER_6_49
*169 FILLER_6_56
*170 FILLER_6_63
*171 FILLER_6_67
*172 FILLER_6_73
*173 FILLER_6_109
*174 FILLER_6_113
*175 FILLER_6_119
*176 FILLER_7_0
*177 FILLER_7_7
*178 FILLER_7_14
*179 FILLER_7_21
*180 FILLER_7_28
*181 FILLER_7_43
*182 FILLER_7_50
*183 FILLER_7_55
*184 FILLER_7_121
*185 FILLER_7_123
*186 FILLER_8_0
*187 FILLER_8_7
*188 FILLER_8_14
*189 FILLER_8_21
*190 FILLER_8_28
*191 FILLER_8_35
*192 FILLER_8_42
*193 FILLER_8_49
*194 FILLER_8_56
*195 FILLER_8_60
*196 FILLER_8_74
*197 FILLER_8_105
*198 FILLER_8_112
*199 FILLER_8_119
*200 FILLER_8_123
*201 FILLER_9_0
*202 FILLER_9_7
*203 FILLER_9_14
*204 FILLER_9_21
*205 FILLER_9_28
*206 FILLER_9_35
*207 FILLER_9_42
*208 FILLER_9_49
*209 FILLER_9_56
*210 FILLER_9_63
*211 FILLER_9_70
*212 FILLER_9_77
*213 FILLER_9_84
*214 FILLER_9_91
*215 FILLER_9_98
*216 FILLER_9_105
*217 FILLER_9_112
*218 FILLER_9_119
*219 FILLER_9_123
*220 FILLER_10_0
*221 FILLER_10_7
*222 FILLER_10_14
*223 FILLER_10_21
*224 FILLER_10_28
*225 FILLER_10_35
*226 FILLER_10_42
*227 FILLER_10_49
*228 FILLER_10_56
*229 FILLER_10_63
*230 FILLER_10_70
*231 FILLER_10_77
*232 FILLER_10_84
*233 FILLER_10_91
*234 FILLER_10_98
*235 FILLER_10_105
*236 FILLER_10_112
*237 FILLER_10_119
*238 FILLER_10_123
*239 FILLER_11_0
*240 FILLER_11_7
*241 FILLER_11_14
*242 FILLER_11_21
*243 FILLER_11_28
*244 FILLER_11_35
*245 FILLER_11_42
*246 FILLER_11_49
*247 FILLER_11_56
*248 FILLER_11_63
*249 FILLER_11_70
*250 FILLER_11_77
*251 FILLER_11_84
*252 FILLER_11_91
*253 FILLER_11_95
*254 FILLER_11_102
*255 FILLER_11_109
*256 FILLER_11_116
*257 FILLER_11_123
*258 FILLER_12_0
*259 FILLER_12_7
*260 FILLER_12_14
*261 FILLER_12_21
*262 FILLER_12_28
*263 FILLER_12_35
*264 FILLER_12_42
*265 FILLER_12_49
*266 FILLER_12_56
*267 FILLER_12_63
*268 FILLER_12_70
*269 FILLER_12_77
*270 FILLER_12_84
*271 FILLER_12_91
*272 FILLER_12_98
*273 FILLER_12_105
*274 FILLER_12_112
*275 FILLER_12_119
*276 FILLER_12_123
*277 FILLER_13_0
*278 FILLER_13_7
*279 FILLER_13_14
*280 FILLER_13_21
*281 FILLER_13_28
*282 FILLER_13_35
*283 FILLER_13_42
*284 FILLER_13_49
*285 FILLER_13_56
*286 FILLER_13_63
*287 FILLER_13_70
*288 FILLER_13_77
*289 FILLER_13_84
*290 FILLER_13_91
*291 FILLER_13_98
*292 FILLER_13_105
*293 FILLER_13_112
*294 FILLER_13_119
*295 FILLER_13_123
*296 FILLER_14_0
*297 FILLER_14_7
*298 FILLER_14_14
*299 FILLER_14_21
*300 FILLER_14_28
*301 FILLER_14_35
*302 FILLER_14_42
*303 FILLER_14_49
*304 FILLER_14_56
*305 FILLER_14_63
*306 FILLER_14_70
*307 FILLER_14_77
*308 FILLER_14_84
*309 FILLER_14_91
*310 FILLER_14_98
*311 FILLER_14_105
*312 FILLER_14_112
*313 FILLER_14_119
*314 FILLER_14_123

*PORTS
clock_i I
counter_value_o[0] O
counter_value_o[1] O
counter_value_o[2] O
counter_value_o[3] O
enable_i I
reset_n_i I

*D_NET *1 0.00767628
*CONN
*P clock_i I
*I *47:A I *D sg13g2_buf_2
*CAP
1 clock_i 0.00376978
2 *47:A 6.83628e-05
3 *1:10 0.00383814
4 *47:A *43:A 0
5 *47:A *2:10 0
6 *1:10 *35:D 0
7 *1:10 *43:A 0
8 *1:10 *2:14 0
9 *1:10 *3:8 0
10 *1:10 *4:16 0
11 *1:10 *4:28 0
12 *1:10 *6:8 0
13 *1:10 *8:8 0
14 *1:10 *11:10 0
15 *1:10 *12:8 0
16 *1:10 *20:9 0
17 *1:10 *25:11 0
18 *1:10 *25:21 0
*RES
1 clock_i *1:10 32.9824 
2 *1:10 *47:A 40.5258 
*END

*D_NET *2 0.00730737
*CONN
*I *43:A I *D sg13g2_buf_1
*I *33:A I *D sg13g2_nand3_1
*I *30:A I *D sg13g2_xor2_1
*I *31:A I *D sg13g2_nand2_1
*I *35:A I *D sg13g2_nand4_1
*I *37:Q O *D sg13g2_dfrbpq_1
*CAP
1 *43:A 0.000418621
2 *33:A 0.000489194
3 *30:A 3.75595e-05
4 *31:A 7.48994e-05
5 *35:A 0.000140298
6 *37:Q 0.00052561
7 *2:33 0.000240822
8 *2:31 0.00083606
9 *2:14 0.000893803
10 *2:10 0.00147923
11 *30:A *32:B 0
12 *31:A *32:A 9.7002e-05
13 *31:A *32:B 0
14 *31:A *6:27 9.6544e-05
15 *33:A *33:B 0
16 *33:A *33:C 0
17 *33:A *34:B 0
18 *33:A *37:D 0
19 *33:A *4:28 0
20 *33:A *6:19 0
21 *35:A *35:B 0.000101639
22 *35:A *38:RESET_B 0
23 *43:A *44:A 0.00036238
24 *43:A *3:8 8.10089e-05
25 *2:10 *25:21 0
26 *2:10 *25:39 0
27 *2:14 *3:8 0.000834833
28 *2:31 *3:8 0.000112715
29 *2:31 *3:10 0.000162287
30 *2:33 *32:A 3.24619e-05
31 *2:33 *3:10 0.000210317
32 *2:33 *6:27 8.00835e-05
33 *47:A *43:A 0
34 *47:A *2:10 0
35 *1:10 *43:A 0
36 *1:10 *2:14 0
*RES
1 *37:Q *2:10 44.2548 
2 *2:10 *2:14 24.708 
3 *2:14 *35:A 21.1616 
4 *2:14 *2:31 22.0768 
5 *2:31 *2:33 1.3816 
6 *2:33 *31:A 40.7436 
7 *2:33 *30:A 40.2992 
8 *2:31 *33:A 43.6036 
9 *2:10 *43:A 43.6344 
*END

*D_NET *3 0.00737986
*CONN
*I *44:A I *D sg13g2_buf_1
*I *35:B I *D sg13g2_nand4_1
*I *33:B I *D sg13g2_nand3_1
*I *32:A I *D sg13g2_xnor2_1
*I *38:Q O *D sg13g2_dfrbpq_1
*CAP
1 *44:A 0.000428453
2 *35:B 0.000135033
3 *33:B 0.000348475
4 *32:A 0.000222155
5 *38:Q 0
6 *3:10 0.00075976
7 *3:8 0.000843792
8 *3:6 0.000948083
9 *32:A *32:B 0.000295246
10 *32:A *11:10 0.000146708
11 *33:B *33:C 0.000362103
12 *33:B *37:D 0
13 *33:B *6:19 0.000423857
14 *33:B *11:10 0
15 *35:B *35:C 5.54386e-06
16 *35:B *36:A 0
17 *35:B *37:D 0
18 *35:B *38:RESET_B 0
19 *35:B *38:D 7.46755e-05
20 *35:B *4:16 0
21 *44:A *21:10 0
22 *44:A *23:12 0
23 *3:8 *11:10 3.23414e-05
24 *3:10 *11:10 0.000358991
25 *31:A *32:A 9.7002e-05
26 *33:A *33:B 0
27 *35:A *35:B 0.000101639
28 *43:A *44:A 0.00036238
29 *43:A *3:8 8.10089e-05
30 *1:10 *3:8 0
31 *2:14 *3:8 0.000834833
32 *2:31 *3:8 0.000112715
33 *2:31 *3:10 0.000162287
34 *2:33 *32:A 3.24619e-05
35 *2:33 *3:10 0.000210317
*RES
1 *38:Q *3:6 40 
2 *3:6 *3:8 5.632 
3 *3:8 *3:10 2.1208 
4 *3:10 *32:A 42.3716 
5 *3:10 *33:B 44.1316 
6 *3:8 *35:B 41.4696 
7 *3:6 *44:A 44.4 
*END

*D_NET *4 0.00384461
*CONN
*I *45:A I *D sg13g2_buf_1
*I *35:C I *D sg13g2_nand4_1
*I *34:A I *D sg13g2_xnor2_1
*I *39:Q O *D sg13g2_dfrbpq_1
*CAP
1 *45:A 0.000473947
2 *35:C 1.69786e-05
3 *34:A 0
4 *39:Q 0
5 *4:28 0.000208367
6 *4:16 0.000941059
7 *4:6 0.00118966
8 *35:C *35:D 3.64876e-05
9 *35:C *38:RESET_B 0
10 *45:A *46:A 0
11 *45:A *21:10 0.000196042
12 *45:A *23:12 0
13 *45:A *24:8 0
14 *45:A *25:11 0
15 *4:16 *35:D 7.51291e-05
16 *4:16 *36:A 0
17 *4:16 *36:B 2.21597e-05
18 *4:16 *9:10 8.07306e-05
19 *4:16 *9:21 0.000146061
20 *4:16 *9:34 0.000113072
21 *4:16 *12:8 0.000161805
22 *4:16 *25:21 0
23 *4:28 *35:D 0
24 *4:28 *6:19 0
25 *4:28 *12:8 0.000177566
26 *33:A *4:28 0
27 *35:B *35:C 5.54386e-06
28 *35:B *4:16 0
29 *1:10 *4:16 0
30 *1:10 *4:28 0
*RES
1 *39:Q *4:6 40 
2 *4:6 *4:16 27.0576 
3 *4:16 *4:28 41.903 
4 *4:28 *34:A 20 
5 *4:16 *35:C 20.2332 
6 *4:6 *45:A 44.3934 
*END

*D_NET *5 0.00172338
*CONN
*I *46:A I *D sg13g2_buf_1
*I *36:A I *D sg13g2_xnor2_1
*I *40:Q O *D sg13g2_dfrbpq_1
*CAP
1 *46:A 0.000179223
2 *36:A 0.0006619
3 *40:Q 0
4 *5:6 0.000841123
5 *36:A *36:B 4.1131e-05
6 *36:A *9:21 0
7 *36:A *9:34 0
8 *35:B *36:A 0
9 *45:A *46:A 0
10 *4:16 *36:A 0
*RES
1 *40:Q *5:6 40 
2 *5:6 *36:A 46.7826 
3 *5:6 *46:A 41.8326 
*END

*D_NET *6 0.00547959
*CONN
*I *35:D I *D sg13g2_nand4_1
*I *30:B I *D sg13g2_xor2_1
*I *31:B I *D sg13g2_nand2_1
*I *33:C I *D sg13g2_nand3_1
*I *41:X O *D sg13g2_buf_1
*CAP
1 *35:D 0.000188867
2 *30:B 2.52799e-05
3 *31:B 0
4 *33:C 8.19919e-05
5 *41:X 0.000639963
6 *6:27 0.000161551
7 *6:19 0.000379402
8 *6:10 0.000274563
9 *6:8 0.000828831
10 *33:C *34:B 0.000180264
11 *35:D *36:B 2.20968e-05
12 *35:D *37:D 0.000164649
13 *35:D *9:10 0.000260673
14 *35:D *12:8 0.000145225
15 *6:8 *8:8 0.000374061
16 *6:8 *9:10 0.000425493
17 *6:8 *20:9 9.70074e-05
18 *6:19 *34:B 0.00012839
19 *6:27 *32:B 2.70784e-05
20 *31:A *6:27 9.6544e-05
21 *33:B *33:C 0.000362103
22 *33:B *6:19 0.000423857
23 *33:A *33:C 0
24 *33:A *6:19 0
25 *35:C *35:D 3.64876e-05
26 *1:10 *35:D 0
27 *1:10 *6:8 0
28 *2:33 *6:27 8.00835e-05
29 *4:16 *35:D 7.51291e-05
30 *4:28 *35:D 0
31 *4:28 *6:19 0
*RES
1 *41:X *6:8 46.6484 
2 *6:8 *6:10 20 
3 *6:10 *33:C 21.3552 
4 *6:10 *6:19 2.2 
5 *6:19 *6:27 41.4894 
6 *6:27 *31:B 20 
7 *6:19 *30:B 20.2728 
8 *6:8 *35:D 42.222 
*END

*D_NET *7 0.00011906
*CONN
*I *29:A I *D sg13g2_inv_1
*I *28:Y O *D sg13g2_inv_2
*CAP
1 *29:A 5.953e-05
2 *28:Y 5.953e-05
*RES
1 *28:Y *29:A 40.6424 
*END

*D_NET *8 0.000965121
*CONN
*I *28:A I *D sg13g2_inv_2
*I *42:X O *D sg13g2_buf_1
*CAP
1 *28:A 5.8408e-05
2 *42:X 0.000237122
3 *8:8 0.00029553
4 *1:10 *8:8 0
5 *6:8 *8:8 0.000374061
*RES
1 *42:X *8:8 42.1208 
2 *8:8 *28:A 40.5104 
*END

*D_NET *9 0.00381357
*CONN
*I *39:RESET_B I *D sg13g2_dfrbpq_1
*I *40:RESET_B I *D sg13g2_dfrbpq_1
*I *38:RESET_B I *D sg13g2_dfrbpq_1
*I *37:RESET_B I *D sg13g2_dfrbpq_1
*I *29:Y O *D sg13g2_inv_1
*CAP
1 *39:RESET_B 6.10452e-05
2 *40:RESET_B 0.000121637
3 *38:RESET_B 0.000301296
4 *37:RESET_B 0.000281666
5 *29:Y 0.000494732
6 *9:34 0.000241481
7 *9:21 0.000434688
8 *9:10 0.000850991
9 *37:RESET_B *36:B 0
10 *37:RESET_B *37:D 0
11 *37:RESET_B *26:10 0
12 *38:RESET_B *36:B 0
13 *38:RESET_B *37:D 0
14 *38:RESET_B *38:CLK 0
15 *38:RESET_B *39:D 0
16 *35:B *38:RESET_B 0
17 *35:C *38:RESET_B 0
18 *35:A *38:RESET_B 0
19 *35:D *9:10 0.000260673
20 *36:A *9:21 0
21 *36:A *9:34 0
22 *4:16 *9:10 8.07306e-05
23 *4:16 *9:21 0.000146061
24 *4:16 *9:34 0.000113072
25 *6:8 *9:10 0.000425493
*RES
1 *29:Y *9:10 44.9148 
2 *9:10 *37:RESET_B 42.6224 
3 *9:10 *9:21 0.8272 
4 *9:21 *38:RESET_B 42.4112 
5 *9:21 *9:34 20.6424 
6 *9:34 *40:RESET_B 21.4168 
7 *9:34 *39:RESET_B 20.8184 
*END

*D_NET *10 0.00160765
*CONN
*I *37:D I *D sg13g2_dfrbpq_1
*I *30:X O *D sg13g2_xor2_1
*CAP
1 *37:D 0.000721501
2 *30:X 0.000721501
3 *37:D *36:B 0
4 *33:B *37:D 0
5 *33:A *37:D 0
6 *35:B *37:D 0
7 *35:D *37:D 0.000164649
8 *37:RESET_B *37:D 0
9 *38:RESET_B *37:D 0
*RES
1 *30:X *37:D 45.7772 
*END

*D_NET *11 0.00199743
*CONN
*I *38:D I *D sg13g2_dfrbpq_1
*I *32:Y O *D sg13g2_xnor2_1
*CAP
1 *38:D 6.33306e-05
2 *32:Y 0.000478538
3 *11:10 0.000541869
4 *11:10 *32:B 0.000300978
5 *32:A *11:10 0.000146708
6 *33:B *11:10 0
7 *35:B *38:D 7.46755e-05
8 *1:10 *11:10 0
9 *3:8 *11:10 3.23414e-05
10 *3:10 *11:10 0.000358991
*RES
1 *32:Y *11:10 44.6112 
2 *11:10 *38:D 40.5104 
*END

*D_NET *12 0.00102812
*CONN
*I *39:D I *D sg13g2_dfrbpq_1
*I *34:Y O *D sg13g2_xnor2_1
*CAP
1 *39:D 6.98509e-05
2 *34:Y 0.000201911
3 *12:8 0.000271762
4 *35:D *12:8 0.000145225
5 *38:RESET_B *39:D 0
6 *1:10 *12:8 0
7 *4:16 *12:8 0.000161805
8 *4:28 *12:8 0.000177566
*RES
1 *34:Y *12:8 42.0284 
2 *12:8 *39:D 40.4048 
*END

*D_NET *13 6.76848e-05
*CONN
*I *40:D I *D sg13g2_dfrbpq_1
*I *36:Y O *D sg13g2_xnor2_1
*CAP
1 *40:D 3.38424e-05
2 *36:Y 3.38424e-05
*RES
1 *36:Y *40:D 40.3652 
*END

*D_NET *14 0.000934609
*CONN
*I *32:B I *D sg13g2_xnor2_1
*I *31:Y O *D sg13g2_nand2_1
*CAP
1 *32:B 0.000155653
2 *31:Y 0.000155653
3 *30:A *32:B 0
4 *31:A *32:B 0
5 *32:A *32:B 0.000295246
6 *6:27 *32:B 2.70784e-05
7 *11:10 *32:B 0.000300978
*RES
1 *31:Y *32:B 42.0416 
*END

*D_NET *15 0.00051636
*CONN
*I *34:B I *D sg13g2_xnor2_1
*I *33:Y O *D sg13g2_nand3_1
*CAP
1 *34:B 0.000103853
2 *33:Y 0.000103853
3 *33:C *34:B 0.000180264
4 *33:A *34:B 0
5 *6:19 *34:B 0.00012839
*RES
1 *33:Y *34:B 41.144 
*END

*D_NET *16 0.000452191
*CONN
*I *36:B I *D sg13g2_xnor2_1
*I *35:Y O *D sg13g2_nand4_1
*CAP
1 *36:B 0.000183402
2 *35:Y 0.000183402
3 *35:D *36:B 2.20968e-05
4 *36:A *36:B 4.1131e-05
5 *37:RESET_B *36:B 0
6 *37:D *36:B 0
7 *38:RESET_B *36:B 0
8 *4:16 *36:B 2.21597e-05
*RES
1 *35:Y *36:B 41.3552 
*END

*D_NET *19 0.00582413
*CONN
*P enable_i I
*I *41:A I *D sg13g2_buf_1
*CAP
1 enable_i 0.00158025
2 *41:A 0
3 *19:13 0.00158025
4 *19:13 *20:9 0.00266363
*RES
1 enable_i *19:13 37.204 
2 *19:13 *41:A 20 
*END

*D_NET *20 0.00675605
*CONN
*P reset_n_i I
*I *42:A I *D sg13g2_buf_1
*CAP
1 reset_n_i 0.0019977
2 *42:A 0
3 *20:9 0.0019977
4 *1:10 *20:9 0
5 *6:8 *20:9 9.70074e-05
6 *19:13 *20:9 0.00266363
*RES
1 reset_n_i *20:9 37.5296 
2 *20:9 *42:A 20 
*END

*D_NET *21 0.00378593
*CONN
*P counter_value_o[0] O
*I *43:X O *D sg13g2_buf_1
*CAP
1 counter_value_o[0] 0.000147
2 *43:X 0.000903991
3 *21:10 0.00105099
4 counter_value_o[0] counter_value_o[1] 0
5 *21:10 counter_value_o[1] 0.00148791
6 *21:10 *24:8 0
7 *44:A *21:10 0
8 *45:A *21:10 0.000196042
*RES
1 *43:X *21:10 49.5348 
2 *21:10 counter_value_o[0] 1.3376 
*END

*D_NET *22 0.0035458
*CONN
*P counter_value_o[1] O
*I *44:X O *D sg13g2_buf_1
*CAP
1 counter_value_o[1] 0.00102895
2 *44:X 0.00102895
3 counter_value_o[1] counter_value_o[2] 0
4 counter_value_o[1] counter_value_o[3] 0
5 counter_value_o[0] counter_value_o[1] 0
6 *21:10 counter_value_o[1] 0.00148791
*RES
1 *44:X counter_value_o[1] 49.6536 
*END

*D_NET *23 0.00235395
*CONN
*P counter_value_o[2] O
*I *45:X O *D sg13g2_buf_1
*CAP
1 counter_value_o[2] 0.000944984
2 *45:X 0.000231993
3 *23:12 0.00117698
4 counter_value_o[2] counter_value_o[3] 0
5 counter_value_o[1] counter_value_o[2] 0
6 *44:A *23:12 0
7 *45:A *23:12 0
*RES
1 *45:X *23:12 42.046 
2 *23:12 counter_value_o[2] 8.9144 
*END

*D_NET *24 0.00276664
*CONN
*P counter_value_o[3] O
*I *46:X O *D sg13g2_buf_1
*CAP
1 counter_value_o[3] 0.000833342
2 *46:X 0.000549979
3 *24:8 0.00138332
4 counter_value_o[1] counter_value_o[3] 0
5 counter_value_o[2] counter_value_o[3] 0
6 *45:A *24:8 0
7 *21:10 *24:8 0
*RES
1 *46:X *24:8 45.2624 
2 *24:8 counter_value_o[3] 46.204 
*END

*D_NET *25 0.0041781
*CONN
*I *49:A I *D sg13g2_buf_2
*I *48:A I *D sg13g2_buf_2
*I *47:X O *D sg13g2_buf_2
*CAP
1 *49:A 7.16997e-05
2 *48:A 0.000113055
3 *47:X 0
4 *25:39 0.00078475
5 *25:21 0.00103781
6 *25:11 0.00190429
7 *25:6 0.000266487
8 *48:A *26:10 0
9 *49:A *27:8 0
10 *25:21 *40:CLK 0
11 *25:21 *26:10 0
12 *25:39 *39:CLK 0
13 *25:39 *27:8 0
14 *45:A *25:11 0
15 *1:10 *25:11 0
16 *1:10 *25:21 0
17 *2:10 *25:21 0
18 *2:10 *25:39 0
19 *4:16 *25:21 0
*RES
1 *47:X *25:6 40 
2 *25:6 *25:11 2.1208 
3 *25:11 *25:21 28.5184 
4 *25:21 *48:A 20.9658 
5 *25:11 *25:39 26.479 
6 *25:39 *49:A 20.8118 
*END

*D_NET *26 0.00197674
*CONN
*I *40:CLK I *D sg13g2_dfrbpq_1
*I *37:CLK I *D sg13g2_dfrbpq_1
*I *48:X O *D sg13g2_buf_2
*CAP
1 *40:CLK 0.000319062
2 *37:CLK 0
3 *48:X 0.000669306
4 *26:10 0.000988368
5 *37:RESET_B *26:10 0
6 *48:A *26:10 0
7 *25:21 *40:CLK 0
8 *25:21 *26:10 0
*RES
1 *48:X *26:10 26.611 
2 *26:10 *37:CLK 20 
3 *26:10 *40:CLK 23.1328 
*END

*D_NET *27 0.00180291
*CONN
*I *39:CLK I *D sg13g2_dfrbpq_1
*I *38:CLK I *D sg13g2_dfrbpq_1
*I *49:X O *D sg13g2_buf_2
*CAP
1 *39:CLK 0.000223432
2 *38:CLK 2.83191e-05
3 *49:X 0.000649703
4 *27:8 0.000901454
5 *38:RESET_B *38:CLK 0
6 *49:A *27:8 0
7 *25:39 *39:CLK 0
8 *25:39 *27:8 0
*RES
1 *49:X *27:8 26.5384 
2 *27:8 *38:CLK 20.3212 
3 *27:8 *39:CLK 22.024 
*END
